NOVO24/1726532/Linhas.dss
! ==========================================================
! LINHAS — geradas de SSDMT
! Barras = PAC_1 / PAC_2 da BDGD (preservados)
! ==========================================================
New Line.247045835 Bus1=node_424289690.3 Bus2=node_441668942.3 LineCode=CND_909_1F Length=44.55 Units=m
New Line.247046227 Bus1=node_441671066.2 Bus2=node_441670596.2 LineCode=CND_909_1F Length=35.27 Units=m
New Line.245212660 Bus1=node_432480727.1 Bus2=node_432481196.1 LineCode=CND_907_1F Length=155.20 Units=m
New Line.2315432236 Bus1=node_2585164188.2 Bus2=node_2585164263.2 LineCode=CND_902_1F Length=2.08 Units=m
New Line.247215805 Bus1=node_431986591.1.2.3 Bus2=node_431987286.1.2.3 LineCode=CND_13_3F Length=346.36 Units=m
New Line.246639114 Bus1=node_439003759.1.2.3 Bus2=node_439003982.1.2.3 LineCode=CND_28_3F Length=24.78 Units=m
New Line.247215355 Bus1=node_432329490.1.2.3 Bus2=node_442018639.1.2.3 LineCode=CND_13_3F Length=60.69 Units=m
New Line.243675259 Bus1=node_424540251.3 Bus2=node_424540401.3 LineCode=CND_907_1F Length=51.52 Units=m
New Line.244918477 Bus1=node_430524984.1.2.3 Bus2=node_430524985.1.2.3 LineCode=CND_11_3F Length=45.39 Units=m
New Line.247215934 Bus1=node_442171839.1.2.3 Bus2=node_442171840.1.2.3 LineCode=CND_13_3F Length=66.19 Units=m
New Line.243675403 Bus1=node_424540116.1 Bus2=node_424541121.1 LineCode=CND_902_1F Length=62.06 Units=m
New Line.243674301 Bus1=node_424471200.1 Bus2=node_424471201.1 LineCode=CND_907_1F Length=70.43 Units=m
New Line.245211193 Bus1=node_431985732.2 Bus2=node_432155891.2 LineCode=CND_907_1F Length=68.84 Units=m
New Line.243675601 Bus1=node_424542110.1 Bus2=node_424542111.1 LineCode=CND_902_1F Length=79.06 Units=m
New Line.243672358 Bus1=node_424287731.3 Bus2=node_424289726.3 LineCode=CND_907_1F Length=82.61 Units=m
New Line.243672483 Bus1=node_424354701.3 Bus2=node_424354761.3 LineCode=CND_907_1F Length=104.65 Units=m
New Line.243672544 Bus1=node_424287551.1 Bus2=node_424355066.1 LineCode=CND_907_1F Length=168.37 Units=m
New Line.243675839 Bus1=node_424543276.3 Bus2=node_424289520.3 LineCode=CND_907_1F Length=366.00 Units=m
New Line.243673853 Bus1=node_424417432.1 Bus2=node_424417433.1 LineCode=CND_907_1F Length=101.57 Units=m
New Line.915416439 Bus1=node_1176083729.3 Bus2=node_1176083786.3 LineCode=CND_907_1F Length=3.07 Units=m
New Line.245036701 Bus1=node_431635692.1 Bus2=node_431635577.1 LineCode=CND_907_1F Length=231.95 Units=m
New Line.2544296722 Bus1=node_2688748231.3 Bus2=node_2737346661.3 LineCode=CND_996_1F Length=25.79 Units=m
New Line.243672772 Bus1=node_424356056.1 Bus2=node_424356045.1 LineCode=CND_907_1F Length=92.90 Units=m
New Line.1178801820 Bus1=node_430869281.1.2.3 Bus2=node_1450753742.1.2.3 LineCode=CND_11_3F Length=121.65 Units=m
New Line.2152109943 Bus1=node_2462128299.2 Bus2=node_2462128309.2 LineCode=CND_915_1F Length=30.53 Units=m
New Line.246094534 Bus1=node_436409885.3 Bus2=node_436409770.3 LineCode=CND_907_1F Length=132.30 Units=m
New Line.247215823 Bus1=node_442020002.1.2.3 Bus2=node_431986591.1.2.3 LineCode=CND_13_3F Length=159.62 Units=m
New Line.245034862 Bus1=node_431130083.1.2.3 Bus2=node_431130107.1.2.3 LineCode=CND_20_3F Length=37.64 Units=m
New Line.247214353 Bus1=node_2704133875.1.2.3 Bus2=node_424415512.1.2.3 LineCode=CND_463_3F Length=32.37 Units=m
New Line.243673835 Bus1=node_424417337.3 Bus2=node_424417343.3 LineCode=CND_907_1F Length=303.31 Units=m
New Line.243674299 Bus1=node_424470936.3 Bus2=node_424415182.3 LineCode=CND_907_1F Length=143.37 Units=m
New Line.245212286 Bus1=node_432479305.1 Bus2=node_424615938.1 LineCode=CND_907_1F Length=65.18 Units=m
New Line.246096461 Bus1=node_436788804.2 Bus2=node_436788805.2 LineCode=CND_907_1F Length=69.89 Units=m
New Line.243675752 Bus1=node_424542865.3 Bus2=node_424542715.3 LineCode=CND_902_1F Length=46.99 Units=m
New Line.247214172 Bus1=node_441670008.1 Bus2=node_441669622.1 LineCode=CND_909_1F Length=43.46 Units=m
New Line.245211862 Bus1=node_424613749.3 Bus2=node_432331186.3 LineCode=CND_907_1F Length=135.39 Units=m
New Line.247215835 Bus1=node_442171340.2 Bus2=node_442171266.2 LineCode=CND_909_1F Length=55.77 Units=m
New Line.1787038277 Bus1=100_1787038312.1 Bus2=node_424472505.1 LineCode=CND_907_1F Length=1.54 Units=m
New Line.2616153873 Bus1=node_2770385837.1.2.3 Bus2=node_2770385749.1.2.3 LineCode=CND_461_3F Length=32.69 Units=m
New Line.243672729 Bus1=node_424355936.1.2.3 Bus2=node_424355940.1.2.3 LineCode=CND_11_3F Length=127.85 Units=m
New Line.245209766 Bus1=node_431985756.1 Bus2=node_424541215.1 LineCode=CND_907_1F Length=82.08 Units=m
New Line.245210140 Bus1=node_431987631.3 Bus2=node_431987531.3 LineCode=CND_907_1F Length=56.67 Units=m
New Line.243675782 Bus1=node_424542986.2 Bus2=node_424289305.2 LineCode=CND_907_1F Length=77.86 Units=m
New Line.247215737 Bus1=node_442170846.1 Bus2=node_442170847.1 LineCode=CND_909_1F Length=51.21 Units=m
New Line.243675311 Bus1=node_424540531.2 Bus2=node_424540650.2 LineCode=CND_907_1F Length=63.12 Units=m
New Line.247215874 Bus1=node_442171282.1 Bus2=node_442019407.1 LineCode=CND_909_1F Length=72.74 Units=m
New Line.243675375 Bus1=node_424540980.3 Bus2=node_424540981.3 LineCode=CND_907_1F Length=142.45 Units=m
New Line.247215252 Bus1=node_432328881.3 Bus2=node_442018124.3 LineCode=CND_909_1F Length=48.54 Units=m
New Line.247214812 Bus1=node_431296003.1.2.3 Bus2=node_442015805.1.2.3 LineCode=CND_13_3F Length=126.02 Units=m
New Line.246639177 Bus1=node_432328646.3 Bus2=node_439004303.3 LineCode=CND_902_1F Length=33.79 Units=m
New Line.245210825 Bus1=node_432154232.3 Bus2=node_432154233.3 LineCode=CND_907_1F Length=307.98 Units=m
New Line.243675849 Bus1=node_424289586.1 Bus2=node_424543351.1 LineCode=CND_907_1F Length=49.67 Units=m
New Line.247214211 Bus1=node_441849718.1 Bus2=node_424358525.1 LineCode=CND_909_1F Length=41.33 Units=m
New Line.247046012 Bus1=node_441669893.1.2.3 Bus2=node_441669988.1.2.3 LineCode=CND_20_3F Length=36.06 Units=m
New Line.245036462 Bus1=node_431634493.1.2.3 Bus2=node_431634494.1.2.3 LineCode=CND_11_3F Length=94.17 Units=m
New Line.245036643 Bus1=node_431634519.2 Bus2=node_431635399.2 LineCode=CND_907_1F Length=162.92 Units=m
New Line.243727742 Bus1=node_424613879.3 Bus2=node_424613749.3 LineCode=CND_907_1F Length=60.39 Units=m
New Line.1359038591 Bus1=node_1653555308.2 Bus2=node_1653555330.2 LineCode=CND_902_1F Length=30.53 Units=m
New Line.247215696 Bus1=node_442019358.1.2.3 Bus2=node_442170576.1.2.3 LineCode=CND_20_3F Length=40.22 Units=m
New Line.245036611 Bus1=node_431634534.3 Bus2=node_431635239.3 LineCode=CND_907_1F Length=109.94 Units=m
New Line.245211539 Bus1=node_432329496.1 Bus2=node_432154546.1 LineCode=CND_907_1F Length=70.53 Units=m
New Line.243675484 Bus1=node_424541515.2 Bus2=node_424541526.2 LineCode=CND_907_1F Length=29.50 Units=m
New Line.247046340 Bus1=node_441670997.1.2.3 Bus2=node_440651551.1.2.3 LineCode=CND_50_3F Length=30.52 Units=m
New Line.246638885 Bus1=node_424417037.1.2.3 Bus2=node_439002823.1.2.3 LineCode=CND_19_3F Length=14.75 Units=m
New Line.247214981 Bus1=node_442016760.1.2.3 Bus2=node_442016761.1.2.3 LineCode=CND_20_3F Length=38.08 Units=m
New Line.243999528 Bus1=node_426032957.1 Bus2=node_426032958.1 LineCode=CND_907_1F Length=209.29 Units=m
New Line.244301901 Bus1=node_427841132.2 Bus2=node_427841147.2 LineCode=CND_902_1F Length=41.24 Units=m
New Line.717484529 Bus1=node_990861980.1.2.3 Bus2=node_990862091.1.2.3 LineCode=CND_10_3F Length=4.36 Units=m
New Line.243674585 Bus1=node_424358476.1 Bus2=node_424472621.1 LineCode=CND_907_1F Length=208.56 Units=m
New Line.247046525 Bus1=node_424418892.1.2.3 Bus2=node_441848615.1.2.3 LineCode=CND_50_3F Length=37.81 Units=m
New Line.243675550 Bus1=node_424541855.2 Bus2=node_424541795.2 LineCode=CND_907_1F Length=299.16 Units=m
New Line.243673180 Bus1=node_424358245.2 Bus2=node_424358246.2 LineCode=CND_907_1F Length=518.15 Units=m
New Line.243672948 Bus1=node_424357085.1 Bus2=node_424356945.1 LineCode=CND_907_1F Length=114.59 Units=m
New Line.245210220 Bus1=node_431986952.2 Bus2=node_431988032.2 LineCode=CND_907_1F Length=106.17 Units=m
New Line.1362237181 Bus1=node_1656887232.2 Bus2=node_1656887243.2 LineCode=CND_902_1F Length=34.25 Units=m
New Line.1929779444 Bus1=node_424615998.1.2.3 Bus2=node_2247007317.1.2.3 LineCode=CND_19_3F Length=2.59 Units=m
New Line.1556682393 Bus1=node_424418052.2 Bus2=node_1876160362.2 LineCode=CND_926_1F Length=3.26 Units=m
New Line.247045869 Bus1=node_441669272.1 Bus2=node_441669207.1 LineCode=CND_909_1F Length=36.06 Units=m
New Line.770549767 Bus1=node_1043485119.1 Bus2=node_1043485129.1 LineCode=CND_907_1F Length=104.64 Units=m
New Line.245913334 Bus1=node_429944924.1 Bus2=node_435327725.1 LineCode=CND_907_1F Length=56.41 Units=m
New Line.246278074 Bus1=node_438155727.3 Bus2=node_438155731.3 LineCode=CND_907_1F Length=299.34 Units=m
New Line.245211781 Bus1=node_432330780.3 Bus2=node_432330781.3 LineCode=CND_907_1F Length=73.52 Units=m
New Line.245209812 Bus1=node_431985991.1 Bus2=node_431985992.1 LineCode=CND_907_1F Length=305.06 Units=m
New Line.245212100 Bus1=node_432332159.1 Bus2=node_432332384.1 LineCode=CND_907_1F Length=125.32 Units=m
New Line.247215983 Bus1=node_432479961.1.2.3 Bus2=node_442172085.1.2.3 LineCode=CND_13_3F Length=80.58 Units=m
New Line.1658330007 Bus1=node_1979448371.2 Bus2=node_1979448396.2 LineCode=CND_902_1F Length=56.66 Units=m
New Line.243672331 Bus1=node_424228989.1.2.3 Bus2=node_424289591.1.2.3 LineCode=CND_11_3F Length=52.12 Units=m
New Line.984691529 Bus1=100_984691652.1.2.3 Bus2=node_1246647055.1.2.3 LineCode=CND_28_3F Length=10.78 Units=m
New Line.245209359 Bus1=node_431816256.1.2.3 Bus2=node_431814676.1.2.3 LineCode=CND_20_3F Length=29.25 Units=m
New Line.2668442295 Bus1=node_2837583455.3 Bus2=node_2837583465.3 LineCode=CND_915_1F Length=69.08 Units=m
New Line.243673041 Bus1=node_424356296.1.2.3 Bus2=node_424357435.1.2.3 LineCode=CND_11_3F Length=126.11 Units=m
New Line.243675226 Bus1=node_424227784.1.2.3 Bus2=node_424474205.1.2.3 LineCode=CND_11_3F Length=112.53 Units=m
New Line.1341063486 Bus1=node_1635606170.1 Bus2=node_1635606244.1 LineCode=CND_907_1F Length=132.41 Units=m
New Line.243727757 Bus1=node_424613860.3 Bus2=node_424613879.3 LineCode=CND_907_1F Length=84.58 Units=m
New Line.243675872 Bus1=node_424289701.3 Bus2=node_424543466.3 LineCode=CND_907_1F Length=194.63 Units=m
New Line.243675293 Bus1=node_424474216.2 Bus2=node_424540571.2 LineCode=CND_907_1F Length=136.16 Units=m
New Line.246095056 Bus1=node_436579957.3 Bus2=node_436408286.3 LineCode=CND_907_1F Length=59.40 Units=m
New Line.246094548 Bus1=node_436409906.3 Bus2=node_436409875.3 LineCode=CND_907_1F Length=183.59 Units=m
New Line.247046628 Bus1=node_441848995.1.2.3 Bus2=node_441849009.1.2.3 LineCode=CND_50_3F Length=9.34 Units=m
New Line.243675785 Bus1=node_424542976.1 Bus2=node_424543031.1 LineCode=CND_907_1F Length=12.49 Units=m
New Line.247214893 Bus1=node_442016308.3 Bus2=node_442016309.3 LineCode=CND_909_1F Length=26.73 Units=m
New Line.243675616 Bus1=node_424541021.3 Bus2=node_424541025.3 LineCode=CND_907_1F Length=94.51 Units=m
New Line.245211056 Bus1=node_432155062.1 Bus2=node_432155076.1 LineCode=CND_907_1F Length=35.64 Units=m
New Line.247215184 Bus1=node_441852374.1.2.3 Bus2=node_441852073.1.2.3 LineCode=CND_13_3F Length=128.62 Units=m
New Line.243673209 Bus1=node_424356236.2 Bus2=node_424358391.2 LineCode=CND_902_1F Length=57.27 Units=m
New Line.1517325724 Bus1=node_1831994726.1.2.3 Bus2=node_1831996129.1.2.3 LineCode=CND_10_3F Length=33.83 Units=m
New Line.245211171 Bus1=node_432155682.3 Bus2=node_432155967.3 LineCode=CND_907_1F Length=155.32 Units=m
New Line.2545479082 Bus1=node_2689542904.1.2.3 Bus2=node_2689542914.1.2.3 LineCode=CND_51_3F Length=102.78 Units=m
New Line.247045802 Bus1=node_424289536.1 Bus2=node_441668938.1 LineCode=CND_909_1F Length=68.62 Units=m
New Line.243675069 Bus1=node_424539450.2 Bus2=node_424539451.2 LineCode=CND_907_1F Length=185.31 Units=m
New Line.246274489 Bus1=node_430522712.1.2.3 Bus2=node_437374079.1.2.3 LineCode=CND_11_3F Length=43.34 Units=m
New Line.244000744 Bus1=node_426213946.1 Bus2=node_426032997.1 LineCode=CND_907_1F Length=110.19 Units=m
New Line.247046450 Bus1=node_441672185.1.2.3 Bus2=node_441672186.1.2.3 LineCode=CND_20_3F Length=30.26 Units=m
New Line.1954122810 Bus1=node_920131219.1.2.3 Bus2=node_2271428818.1.2.3 LineCode=CND_51_3F Length=148.26 Units=m
New Line.2782064776 Bus1=node_2827730622.1.2.3 Bus2=node_2827730672.1.2.3 LineCode=CND_10_3F Length=9.06 Units=m
New Line.246639580 Bus1=node_432483041.1 Bus2=node_439208152.1 LineCode=CND_902_1F Length=76.87 Units=m
New Line.245209383 Bus1=node_431816307.1.2.3 Bus2=node_431816377.1.2.3 LineCode=CND_11_3F Length=32.36 Units=m
New Line.247215625 Bus1=node_442019996.3 Bus2=node_431985681.3 LineCode=CND_909_1F Length=42.89 Units=m
New Line.243675478 Bus1=node_424541495.2 Bus2=node_424541445.2 LineCode=CND_907_1F Length=33.20 Units=m
New Line.1303731436 Bus1=node_1602301896.1.2.3 Bus2=node_1602301907.1.2.3 LineCode=CND_20_3F Length=38.00 Units=m
New Line.245209616 Bus1=node_431985011.3 Bus2=node_431985012.3 LineCode=CND_907_1F Length=95.66 Units=m
New Line.245211478 Bus1=node_432155652.3 Bus2=node_432329240.3 LineCode=CND_907_1F Length=85.74 Units=m
New Line.246275874 Bus1=node_437552767.2 Bus2=node_437552768.2 LineCode=CND_902_1F Length=76.53 Units=m
New Line.245212178 Bus1=node_432332704.3 Bus2=node_432332728.3 LineCode=CND_907_1F Length=330.12 Units=m
New Line.245209238 Bus1=node_431815651.3 Bus2=node_431815652.3 LineCode=CND_907_1F Length=86.07 Units=m
New Line.244707863 Bus1=node_429536234.1 Bus2=node_427838812.1 LineCode=CND_907_1F Length=175.44 Units=m
New Line.243728090 Bus1=node_424614994.1.2.3 Bus2=node_2199180728.1.2.3 LineCode=CND_11_3F Length=146.53 Units=m
New Line.243672068 Bus1=node_424288275.1 Bus2=node_424288276.1 LineCode=CND_907_1F Length=197.31 Units=m
New Line.247214337 Bus1=node_424286226.1.2.3 Bus2=node_441850349.1.2.3 LineCode=CND_50_3F Length=37.94 Units=m
New Line.247214189 Bus1=node_441849599.1.2.3 Bus2=node_441849609.1.2.3 LineCode=CND_20_3F Length=27.38 Units=m
New Line.243611280 Bus1=node_424229073.1.2.3 Bus2=node_424229074.1.2.3 LineCode=CND_13_3F Length=65.05 Units=m
New Line.243675643 Bus1=node_424542276.2 Bus2=node_424542235.2 LineCode=CND_907_1F Length=53.33 Units=m
New Line.243673419 Bus1=node_424415262.1 Bus2=node_424415263.1 LineCode=CND_907_1F Length=128.39 Units=m
New Line.436841842 Bus1=node_705702915.1 Bus2=node_705703047.1 LineCode=CND_910_1F Length=7.09 Units=m
New Line.1859151885 Bus1=node_2179767862.2 Bus2=node_2179767920.2 LineCode=CND_915_1F Length=24.62 Units=m
New Line.243672684 Bus1=node_424288221.1 Bus2=node_424287825.1 LineCode=CND_907_1F Length=96.30 Units=m
New Line.247045748 Bus1=node_424288196.1 Bus2=node_424289490.1 LineCode=CND_909_1F Length=39.73 Units=m
New Line.243727703 Bus1=node_424613684.1 Bus2=node_424613685.1 LineCode=CND_902_1F Length=33.70 Units=m
New Line.244917137 Bus1=node_425527874.3 Bus2=node_430138547.3 LineCode=CND_907_1F Length=312.82 Units=m
New Line.244710666 Bus1=node_427840991.1 Bus2=node_430323220.1 LineCode=CND_907_1F Length=109.73 Units=m
New Line.243729301 Bus1=node_424771559.3 Bus2=node_424771969.3 LineCode=CND_907_1F Length=76.41 Units=m
New Line.1578204206 Bus1=node_1897944352.1.2.3 Bus2=node_1897944363.1.2.3 LineCode=CND_19_3F Length=36.93 Units=m
New Line.247214838 Bus1=node_442015816.2 Bus2=node_771395646.2 LineCode=CND_909_1F Length=27.90 Units=m
New Line.247214878 Bus1=node_442016126.3 Bus2=node_442016234.3 LineCode=CND_909_1F Length=33.30 Units=m
New Line.246639001 Bus1=node_439003418.1.2.3 Bus2=node_439003314.1.2.3 LineCode=CND_19_3F Length=35.11 Units=m
New Line.1069652792 Bus1=node_1357604406.1 Bus2=node_1357604417.1 LineCode=CND_902_1F Length=118.52 Units=m
New Line.245209510 Bus1=node_431817010.1 Bus2=node_431816906.1 LineCode=CND_907_1F Length=81.87 Units=m
New Line.981343180 Bus1=node_1243329611.1.2.3 Bus2=node_1243329561.1.2.3 LineCode=CND_20_3F Length=29.73 Units=m
New Line.247215824 Bus1=node_442171281.1 Bus2=node_442171282.1 LineCode=CND_909_1F Length=72.70 Units=m
New Line.243673021 Bus1=node_424357445.1 Bus2=node_424357451.1 LineCode=CND_907_1F Length=173.32 Units=m
New Line.245212669 Bus1=node_424699855.1 Bus2=node_432481241.1 LineCode=CND_907_1F Length=146.84 Units=m
New Line.247215342 Bus1=node_432329546.1 Bus2=node_442018558.1 LineCode=CND_909_1F Length=56.59 Units=m
New Line.1439885592 Bus1=100_1439885677.1 Bus2=node_426033018.1 LineCode=CND_907_1F Length=12.07 Units=m
New Line.245036565 Bus1=node_705702915.1 Bus2=node_431635009.1 LineCode=CND_907_1F Length=80.83 Units=m
New Line.247045940 Bus1=node_431635777.1.2.3 Bus2=node_424229521.1.2.3 LineCode=CND_13_3F Length=96.21 Units=m
New Line.247215100 Bus1=node_442016309.3 Bus2=node_442016810.3 LineCode=CND_909_1F Length=71.53 Units=m
New Line.247046043 Bus1=node_424229228.1.2.3 Bus2=node_431636612.1.2.3 LineCode=CND_13_3F Length=95.75 Units=m
New Line.243672148 Bus1=node_424288511.1 Bus2=node_424288676.1 LineCode=CND_907_1F Length=534.40 Units=m
New Line.247046659 Bus1=node_424358806.2 Bus2=node_441849289.2 LineCode=CND_909_1F Length=77.91 Units=m
New Line.247046444 Bus1=node_441672142.1.2.3 Bus2=node_441672156.1.2.3 LineCode=CND_50_3F Length=36.55 Units=m
New Line.247215208 Bus1=node_441852284.3 Bus2=node_442017848.3 LineCode=CND_909_1F Length=41.48 Units=m
New Line.243675348 Bus1=node_424539586.2 Bus2=node_424540835.2 LineCode=CND_907_1F Length=305.62 Units=m
New Line.247214220 Bus1=node_441849724.1.2.3 Bus2=node_441849764.1.2.3 LineCode=CND_50_3F Length=11.32 Units=m
New Line.243728227 Bus1=node_424616308.1.2.3 Bus2=node_424616183.1.2.3 LineCode=CND_11_3F Length=17.04 Units=m
New Line.245209421 Bus1=node_431816566.2 Bus2=node_431816567.2 LineCode=CND_907_1F Length=88.31 Units=m
New Line.247046430 Bus1=node_441671902.1.2.3 Bus2=node_441672082.1.2.3 LineCode=CND_50_3F Length=21.20 Units=m
New Line.246639269 Bus1=node_1309399533.1.2.3 Bus2=node_439004763.1.2.3 LineCode=CND_28_3F Length=18.26 Units=m
New Line.2782064902 Bus1=node_2713557598.1.2.3 Bus2=node_2713557666.1.2.3 LineCode=CND_586_3F Length=15.75 Units=m
New Line.2616153888 Bus1=node_2770385922.1.2.3 Bus2=node_2770385780.1.2.3 LineCode=CND_461_3F Length=37.20 Units=m
New Line.243728106 Bus1=node_424615703.3 Bus2=node_424615693.3 LineCode=CND_907_1F Length=123.61 Units=m
New Line.243675859 Bus1=node_424289681.3 Bus2=node_424543401.3 LineCode=CND_907_1F Length=36.27 Units=m
New Line.1018197685 Bus1=node_1282798474.1 Bus2=node_1282798501.1 LineCode=CND_907_1F Length=113.89 Units=m
New Line.245209525 Bus1=node_431817090.2 Bus2=node_431817091.2 LineCode=CND_907_1F Length=249.61 Units=m
New Line.247046127 Bus1=node_441670566.1.2.3 Bus2=node_441670567.1.2.3 LineCode=CND_10_3F Length=30.83 Units=m
New Line.243673875 Bus1=node_424417542.2 Bus2=node_424417543.2 LineCode=CND_907_1F Length=322.50 Units=m
New Line.243674038 Bus1=node_424418352.1.2.3 Bus2=node_424356271.1.2.3 LineCode=CND_11_3F Length=45.26 Units=m
New Line.247214327 Bus1=node_441850294.1.2.3 Bus2=node_441850299.1.2.3 LineCode=CND_50_3F Length=36.40 Units=m
New Line.1055835030 Bus1=node_441850358.1.2.3 Bus2=node_1322548816.1.2.3 LineCode=CND_50_3F Length=4.81 Units=m
New Line.245036526 Bus1=node_431634784.2 Bus2=node_431634773.2 LineCode=CND_907_1F Length=39.32 Units=m
New Line.246639236 Bus1=node_439004597.2 Bus2=node_439004598.2 LineCode=CND_902_1F Length=75.03 Units=m
New Line.247214221 Bus1=node_441849768.1.2.3 Bus2=node_441849769.1.2.3 LineCode=CND_20_3F Length=30.92 Units=m
New Line.1061786026 Bus1=node_1328615143.1 Bus2=node_1328615260.1 LineCode=CND_902_1F Length=3.55 Units=m
New Line.243673855 Bus1=node_424414953.1.2.3 Bus2=node_424417443.1.2.3 LineCode=CND_11_3F Length=94.50 Units=m
New Line.349405834 Bus1=100_349382023.1.2.3 Bus2=node_439005023.1.2.3 LineCode=CND_19_3F Length=11.77 Units=m
New Line.247214434 Bus1=node_441850829.1.2.3 Bus2=node_441850834.1.2.3 LineCode=CND_50_3F Length=27.47 Units=m
New Line.245212750 Bus1=node_432481171.1 Bus2=node_432481646.1 LineCode=CND_907_1F Length=40.57 Units=m
New Line.247215105 Bus1=node_442017384.1.2.3 Bus2=node_442017385.1.2.3 LineCode=CND_13_3F Length=117.48 Units=m
New Line.243672425 Bus1=node_424290016.1 Bus2=node_424290061.1 LineCode=CND_907_1F Length=97.98 Units=m
New Line.247215861 Bus1=node_424228879.1.2.3 Bus2=node_431985051.1.2.3 LineCode=CND_13_3F Length=121.06 Units=m
New Line.246463583 Bus1=node_1229204741.3 Bus2=node_438158341.3 LineCode=CND_907_1F Length=2.98 Units=m
New Line.245915236 Bus1=node_435512729.3 Bus2=node_435514543.3 LineCode=CND_907_1F Length=357.74 Units=m
New Line.1045434949 Bus1=node_1312041284.1 Bus2=node_1312041295.1 LineCode=CND_902_1F Length=62.84 Units=m
New Line.247216025 Bus1=node_1740564472.1.2.3 Bus2=node_432480716.1.2.3 LineCode=CND_13_3F Length=56.17 Units=m
New Line.245209627 Bus1=node_431985061.3 Bus2=node_431985067.3 LineCode=CND_907_1F Length=196.78 Units=m
New Line.245368235 Bus1=node_432481181.1 Bus2=node_432632147.1 LineCode=CND_907_1F Length=134.34 Units=m
New Line.244301496 Bus1=node_427839097.3 Bus2=node_427839098.3 LineCode=CND_902_1F Length=40.31 Units=m
New Line.1779231951 Bus1=node_2104807478.1.2.3 Bus2=node_2104807526.1.2.3 LineCode=CND_10_3F Length=46.53 Units=m
New Line.243727567 Bus1=100_1050008081.3 Bus2=node_424613005.3 LineCode=CND_907_1F Length=54.97 Units=m
New Line.244708727 Bus1=node_429742384.1.2.3 Bus2=node_427660409.1.2.3 LineCode=CND_11_3F Length=81.27 Units=m
New Line.245210251 Bus1=node_431988186.3 Bus2=node_431987001.3 LineCode=CND_907_1F Length=37.22 Units=m
...
